&HEAD CHID='trails4', TITLE='created from trails4.in' /
&MESH IJK = 99, 99, 30, XB = 0.0, 3000.000000, 0.0, 3000.000000, 73.875435, 341.876984 /
&TIME T_END = 0.0 /
&VENT MB = 'XMIN', SURF_ID = 'OPEN' /
&VENT MB = 'XMAX', SURF_ID = 'OPEN' /
&VENT MB = 'YMIN', SURF_ID = 'OPEN' /
&VENT MB = 'YMAX', SURF_ID = 'OPEN' /
&VENT MB = 'ZMAX', SURF_ID = 'OPEN' /

&CSVF CSVFILE='a180210_exp.csv' /

Terrain Geometry

&MATL ID = 'matl1', DENSITY = 1000., CONDUCTIVITY = 1., SPECIFIC_HEAT = 1., RGB = 122,117,48 /
&SURF ID = 'surf1', RGB = 122,117,48 TEXTURE_MAP='trails4.png' /
&GEOM ID='terrain', SURF_ID='surf1',MATL_ID='matl1',
IJK=100,100,XB=0.000000,3000.000000,0.000000,3000.000000,
ZVALS=
 109.188423, 108.018379, 107.378433, 107.513145, 107.259857, 107.527718, 107.378769, 107.215057, 106.986336, 107.269974,
 107.179031, 106.919411, 107.486778, 108.328186, 109.303268, 109.857887, 109.956024, 110.451187, 111.006721, 110.971962,
 110.833954, 110.676872, 110.473740, 110.262466, 110.550522, 112.433372, 115.134193, 116.316154, 116.786491, 118.002846,
 120.759033, 121.837692, 122.572090, 127.553871, 130.011017, 137.192856, 141.597641, 143.496536, 149.862686, 152.815018,
 152.705292, 151.951859, 148.630707, 148.169937, 147.638550, 152.777008, 157.947235, 158.449463, 154.721756, 149.995819,
 149.904190, 147.798111, 145.956207, 146.453186, 144.917404, 142.688278, 142.230850, 145.154907, 149.563522, 149.708069,
 149.833633, 149.676788, 149.340240, 145.125229, 142.881989, 141.599899, 139.293396, 136.148148, 134.469238, 134.575592,
 135.451813, 137.053192, 140.547104, 139.339996, 134.199387, 127.820824, 122.276787, 119.334923, 119.413315, 122.204597,
 124.369850, 127.877846, 130.552292, 130.980728, 129.729340, 125.158012, 124.902817, 126.558243, 121.017265, 110.527634,
 102.332397, 101.896278, 102.049438, 102.125046, 102.053680, 102.573433, 102.578552, 102.330276, 102.360298, 100.354706,
 109.224266, 107.273567, 106.874023, 107.242935, 106.716194, 106.490356, 106.876167, 106.620224, 106.164574, 107.341690,
 106.871758, 106.680573, 107.206970, 107.920479, 108.631073, 109.287842, 109.785767, 110.366730, 110.610672, 110.545876,
 110.384300, 110.284668, 110.290787, 110.617683, 111.917862, 113.903679, 116.126373, 117.678307, 118.893280, 120.456863,
 122.028458, 123.707237, 127.035583, 131.206772, 133.520523, 139.223740, 141.934128, 143.709167, 148.151108, 151.707443,
 152.907654, 152.980118, 152.737030, 151.576508, 151.970642, 153.495148, 156.109177, 157.028778, 154.728912, 153.310120,
 152.666153, 153.163330, 148.108231, 144.881454, 142.638123, 141.044479, 140.395538, 139.233337, 142.600433, 147.163452,
 148.018814, 147.670547, 147.583771, 147.265045, 146.644043, 144.978424, 141.934021, 137.353546, 133.164536, 131.800980,
 132.372116, 134.610992, 137.511520, 137.763382, 134.837662, 129.160034, 123.590927, 123.061592, 125.689606, 128.647278,
 132.319916, 137.839661, 141.618759, 142.565765, 139.554153, 132.990677, 132.417404, 132.877243, 123.350464, 111.631622,
 103.136078, 101.778419, 101.925941, 102.106117, 101.942383, 102.467209, 102.631195, 102.624001, 101.219025, 100.227364,
! ... 980 like lines cut
/

&TAIL /
